
================================
test 5-text_indentation.py
================================

This module defines the text indentation function ``text_indentation(text)``.

Usage
=====

Text is printed with two new lines after each of the characters ``.``, ``?``,
and ``:``.

::

    >>> text_indentation = __import__('5-text_indentation').text_indentation
    >>> text_indentation("bro?")
    bro?
    <BLANKLINE>

No spaces are printed at the beginning of a line.

::

    >>> text_indentation("   Hello bro.")
    Hello bro.
    <BLANKLINE>

::

    >>> text_indentation("          ")

 no spaces are printed at the end of each printed line.

::

    >>> text_indentation("Bro.   ")
    Bro.
    <BLANKLINE>

::

    >>> text_indentation("    How are you?    im good.   ")
    How are you?
    <BLANKLINE>
    im good.
    <BLANKLINE>

New lines are only printed for the characters ``.``, ``?``, and ``:`` -
text not ending with one of these characters is not ended with a new line.

::

    >>> text_indentation("Plus semper voluptatis")
    Plus semper voluptatis

New lines in a string will printed normal.

::

    >>> text_indentation("Plus semper voluptatis:\nPrinted.")
    Plus semper voluptatis:
    <BLANKLINE>
    <BLANKLINE>
    Printed.
    <BLANKLINE>

::

    >>> text_indentation("\n\n\n print three new lines.")
    <BLANKLINE>
    <BLANKLINE>
    <BLANKLINE>
    print three new lines.
    <BLANKLINE>

::
    >>> text_indentation("A you \n new line.")
    A you 
    new line.
    <BLANKLINE>

A combo example:

::

    >>> text_indentation("Lorem ipsum dolor sit amet, consectetur adipiscing "
    ... "elit. Quonam modo? Utrum igitur tibi litteram videor an totas paginas "
    ... "commovere? Non autem hoc: igitur ne illud quidem. Fortasse id optimum, "
    ... "sed ubi illud: Plus semper voluptatis? Teneo, inquit, finem illi videri "
    ... "nihil dolere. Transfer idem ad modestiam vel temperantiam, quae est "
    ... "moderatio cupiditatum rationi oboediens. Si id dicis, vicimus. Inde "
    ... "sermone vario sex illa a Dipylo stadia confecimus. Sin aliud quid "
    ... "voles, postea. Quae animi affectio suum cuique tribuens atque hanc, "
    ... "quam dico. Utinam quidem dicerent alium alio beatiorem! Iam ruinas "
    ... "videres") # doctest: +NORMALIZE_WHITESPACE
    Lorem ipsum dolor sit amet, consectetur adipiscing elit.
    <BLANKLINE>
    Quonam modo?
    <BLANKLINE>
    Utrum igitur tibi litteram videor an totas paginas commovere?
    <BLANKLINE>
    Non autem hoc:
    <BLANKLINE>
    igitur ne illud quidem.
    <BLANKLINE>
    Fortasse id optimum, sed ubi illud:
    <BLANKLINE>
    Plus semper voluptatis?
    <BLANKLINE>
    Teneo, inquit, finem illi videri nihil dolere.
    <BLANKLINE>
    Transfer idem ad modestiam vel temperantiam, 
    quae est moderatio cupiditatum rationi oboediens.
    <BLANKLINE>
    Si id dicis, vicimus.
    <BLANKLINE>
    Inde sermone vario sex illa a Dipylo stadia confecimus.
    <BLANKLINE>
    Sin aliud quid voles, postea.
    <BLANKLINE>
    Quae animi affectio suum cuique tribuens atque hanc, quam dico.
    <BLANKLINE>
    Utinam quidem dicerent alium alio beatiorem! Iam ruinas videres

Invalid Text
============

The paramter ``text`` must be a string. or, a TypeError will be raised.

::

    >>> text_indentation(9)
    Traceback (most recent call last):
    TypeError: text must be a string

::

    >>> text_indentation({"five": 5, "four": 4})
    Traceback (most recent call last):
    TypeError: text must be a string

::

    >>> text_indentation(None)
    Traceback (most recent call last):
    TypeError: text must be a string
